R1_12_47_3.glm
// $Id: R1_12_47_3.glm
// 12.47 kV feeder
//*********************************************

module editglm;
#set strictnames=FALSE
#set relax_naming_rules=1

clock {
	// timezone EST+5EDT;
     starttime '2000-01-01 9:00:00';
     stoptime '2000-01-01 10:00:00';
}


#set profiler=1
//*********************************************
// modules

// Add module generators for solar and inverter
module generators;

module residential;

module tape;
module powerflow{
	solver_method FBS;
	default_maximum_voltage_error 1e-6;
	//line_limits FALSE;
};

module climate;
object climate {
    name climatedata;
		tmyfile "Code should change this";
		interpolate LINEAR;
}


//*********************************************
object regulator:222 {
     name R1-12-47-3_reg_1;
     from R1-12-47-3_node_53;
     to R1-12-47-3_meter_22;
     phases ABCN;
     configuration feeder_reg_cfg;
}

object regulator_configuration:223 {
     name feeder_reg_cfg;
     Control OUTPUT_VOLTAGE;
     band_center 7500.0;
     band_width 120;
     connect_type WYE_WYE;
     time_delay 30;
     raise_taps 16;
     lower_taps 16;
     regulation 0.10;
     tap_pos_A 0;
     tap_pos_B 0;
     tap_pos_C 0;
}

object fuse:208 {
     name R1-12-47-3_fuse_1;
     phases AN;
     from R1-12-47-3_node_19;
     to R1-12-47-3_node_20;
     mean_replacement_time 1000;
     current_limit 50000;// 10000;
     status CLOSED;
}

object fuse:209 {
     name R1-12-47-3_fuse_2;
     phases BCN;
     from R1-12-47-3_node_21;
     to R1-12-47-3_node_23;
     mean_replacement_time 1000;
     current_limit 50000;// 100000;
     status CLOSED;
}

object fuse:210 {
     name R1-12-47-3_fuse_3;
     phases AN;
     from R1-12-47-3_node_27;
     to R1-12-47-3_node_28;
     mean_replacement_time 1000;
     current_limit 50000;// 400000;
     status CLOSED;
}

object fuse:211 {
     name R1-12-47-3_fuse_4;
     phases AN;
     from R1-12-47-3_node_32;
     to R1-12-47-3_node_33;
     mean_replacement_time 1000;
     current_limit 50000;// 100000;
     status CLOSED;
}

object fuse:212 {
     name R1-12-47-3_fuse_5;
     phases ABCN;
     from R1-12-47-3_node_32;
     to R1-12-47-3_node_35;
     mean_replacement_time 1000;
     current_limit 50000;// 80000;
     status CLOSED;
}

object fuse:213 {
     name R1-12-47-3_fuse_6;
     phases BN;
     from R1-12-47-3_node_36;
     to R1-12-47-3_node_37;
     mean_replacement_time 1000;
     current_limit 50000;// 400000;
     status CLOSED;
}

object fuse:214 {
     name R1-12-47-3_fuse_7;
     phases BN;
     from R1-12-47-3_node_36;
     to R1-12-47-3_node_40;
     mean_replacement_time 1000;
     current_limit 50000;// 400000;
     status CLOSED;
}

object line_configuration:17 {
     conductor_A underground_line_conductor:2;
     conductor_B underground_line_conductor:2;
     conductor_C underground_line_conductor:2;
     conductor_N underground_line_conductor:2;
     spacing line_spacing:9;
}

object line_configuration:18 {
     conductor_A overhead_line_conductor:3;
     conductor_B overhead_line_conductor:3;
     conductor_C overhead_line_conductor:3;
     conductor_N overhead_line_conductor:3;
     spacing line_spacing:10;
}

object line_configuration:19 {
     conductor_A overhead_line_conductor:4;
     conductor_C overhead_line_conductor:4;
     conductor_N overhead_line_conductor:4;
     spacing line_spacing:11;
}

object line_configuration:20 {
     conductor_C overhead_line_conductor:5;
     conductor_N overhead_line_conductor:5;
     spacing line_spacing:12;
}

object line_configuration:21 {
     conductor_A overhead_line_conductor:4;
     conductor_B overhead_line_conductor:4;
     conductor_C overhead_line_conductor:4;
     conductor_N overhead_line_conductor:4;
     spacing line_spacing:10;
}

object line_configuration:22 {
     conductor_A overhead_line_conductor:5;
     conductor_C overhead_line_conductor:5;
     conductor_N overhead_line_conductor:5;
     spacing line_spacing:11;
}

object line_configuration:23 {
     conductor_C overhead_line_conductor:4;
     conductor_N overhead_line_conductor:4;
     spacing line_spacing:12;
}

object line_configuration:24 {
     conductor_A overhead_line_conductor:6;
     conductor_B overhead_line_conductor:6;
     conductor_C overhead_line_conductor:6;
     conductor_N overhead_line_conductor:6;
     spacing line_spacing:10;
}

object line_configuration:25 {
     conductor_A overhead_line_conductor:6;
     conductor_N overhead_line_conductor:6;
     spacing line_spacing:13;
}

object line_configuration:26 {
     conductor_A overhead_line_conductor:7;
     conductor_B overhead_line_conductor:7;
     conductor_C overhead_line_conductor:7;
     conductor_N overhead_line_conductor:7;
     spacing line_spacing:10;
}

object line_configuration:27 {
     conductor_A overhead_line_conductor:5;
     conductor_B overhead_line_conductor:5;
     conductor_C overhead_line_conductor:5;
     conductor_N overhead_line_conductor:5;
     spacing line_spacing:10;
}

object line_configuration:28 {
     conductor_B underground_line_conductor:8;
     conductor_C underground_line_conductor:8;
     conductor_N underground_line_conductor:8;
     spacing line_spacing:14;
}

object line_configuration:29 {
     conductor_B underground_line_conductor:8;
     conductor_N underground_line_conductor:8;
     spacing line_spacing:15;
}

object line_configuration:30 {
     conductor_B overhead_line_conductor:5;
     conductor_C overhead_line_conductor:5;
     conductor_N overhead_line_conductor:5;
     spacing line_spacing:16;
}

object line_configuration:31 {
     conductor_A overhead_line_conductor:4;
     conductor_N overhead_line_conductor:4;
     spacing line_spacing:13;
}

object line_configuration:32 {
     conductor_A overhead_line_conductor:5;
     conductor_N overhead_line_conductor:5;
     spacing line_spacing:13;
}

object line_configuration:33 {
     conductor_A underground_line_conductor:8;
     conductor_B underground_line_conductor:8;
     conductor_C underground_line_conductor:8;
     conductor_N underground_line_conductor:8;
     spacing line_spacing:9;
}


object line_spacing:9 {
     distance_AB 0.0 in;
     distance_BC 0.0 in;
     distance_AC 0.0 in;
     distance_AN 0.0 in;
     distance_BN 0.0 in;
     distance_CN 0.0 in;
}

object line_spacing:10 {
     distance_AB 57.6 in;
     distance_BC 57.6 in;
     distance_AC 57.6 in;
     distance_AN 84.0 in;
     distance_BN 84.0 in;
     distance_CN 84.0 in;
}

object line_spacing:11 {
     distance_AC 57.6 in;
     distance_AN 84.0 in;
     distance_CN 84.0 in;
}

object line_spacing:12 {
     distance_CN 84.0 in;
}

object line_spacing:13 {
     distance_AN 84.0 in;
}

object line_spacing:14 {
     distance_BC 0.0 in;
     distance_BN 0.0 in;
     distance_CN 0.0 in;
}

object line_spacing:15 {
     distance_BN 0.0 in;
}

object line_spacing:16 {
     distance_BC 57.6 in;
     distance_BN 84.0 in;
     distance_CN 84.0 in;
}


// Load 1
object load:86 {
     name R1-12-47-3_load_1;
     parent R1-12-47-3_meter_1;
     phases CN;
     voltage_C -3600+6235j;
     constant_power_C 54848.3315+1161.1672j;
     nominal_voltage 480;
     load_class C;
}

// Distributed generation connection of load 1
// Solar connection 1

object overhead_line {
    name line_solar1;
		from R1-12-47-3_meter_1;
		to meter_solar1;
		phases CN;
		length 10;
		configuration line_configuration:20;
}

object meter {
    name meter_solar1;
		phases CN;
		nominal_voltage 480;
}

object inverter {
    name solar_inv1;
		phases CN;
		parent meter_solar1;
		generator_status ONLINE;
	  inverter_type FOUR_QUADRANT;
		four_quadrant_control_mode CONSTANT_PF;
	  generator_mode SUPPLY_DRIVEN;
		inverter_efficiency .95;
		rated_power 30000;
}

object solar {
    name solar_1;
		phases CN;
		parent solar_inv1;
		generator_status ONLINE;
		generator_mode SUPPLY_DRIVEN;
		panel_type SINGLE_CRYSTAL_SILICON;
		area 250 ft^2;
		tilt_angle 47.0;
		efficiency 0.135;
		orientation_azimuth 180;  // equator-facing (South)
		orientation FIXED_AXIS;
		SOLAR_TILT_MODEL SOLPOS;
		SOLAR_POWER_MODEL FLATPLATE;
}


// Battery connection 1

object overhead_line {
    name line_batt1;
		from R1-12-47-3_meter_1;
		to meter_batt1;
		phases CN;
		length 10;
		configuration line_configuration:20;
}

object meter {
    name meter_batt1;
		phases CN;
		nominal_voltage 480;
}

object inverter {
    name batt_inv1;
		phases CN;
		parent meter_batt1;
		generator_status ONLINE;
	  inverter_type FOUR_QUADRANT;
		four_quadrant_control_mode CONSTANT_PF;
		sense_object R1-12-47-3_meter_1;
		inverter_efficiency .95;
		rated_power 30000;
		charge_on_threshold 1.5 kW;
		charge_off_threshold 1.7 kW;
		discharge_off_threshold 2 kW;
		discharge_on_threshold 3 kW;
		max_discharge_rate 3 kW;
		max_charge_rate 3 kW;
		charge_lockout_time 1;
		discharge_lockout_time 1;
}

object battery {
    name batt_1;
		parent batt_inv1;
		use_internal_battery_model TRUE;
		battery_type LI_ION;
		rated_power 30000;
		nominal_voltage 480;
		battery_capacity 20 kWh;
		round_trip_efficiency 0.81;
		state_of_charge 0.5;
		generator_mode SUPPLY_DRIVEN;
}


// EV charger connection 1

object transformer_configuration {
	name CS_config;
	connect_type SINGLE_PHASE_CENTER_TAPPED;
	install_type POLETOP;
	powerC_rating 30;
	primary_voltage 480;
	secondary_voltage 120.000;
	impedance 0.006+0.0136j;
}

object transformer {
	name center_tap_1;
	phases CS;
	from R1-12-47-3_load_1;
	to trip_meter_ev1;
	configuration CS_config;
}

object triplex_meter {
    name trip_meter_ev1;
		phases CS;
		nominal_voltage 480;
}

object house {
      name house_1;
      parent trip_meter_ev1;
//  	floor_area 0;
//		heating_setpoint 0;
//		cooling_setpoint 0;
//		thermostat_deadband 0;
//		object ZIPload {
//			base_power 0;
//			power_fraction 0.2;
//			impedance_fraction 0.3;
//			current_fraction 0.5;
//			power_pf 0.9;
//			current_pf 0.6;
//			impedance_pf 0.8;
//		};
//		object waterheater {
//			location INSIDE;
//			water_demand 0;
//		};
		object evcharger {
	      charger_type HIGH;
		};
}


// Load 2
object load:87 {
     name R1-12-47-3_load_2;
     parent R1-12-47-3_meter_2;
     phases ABCN;
     voltage_A 7200+0.0j;
     voltage_B -3600-6235j;
     voltage_C -3600+6235j;
     constant_power_A 18397.9491+344.1439j;
     constant_power_B 5945.0578+187.089j;
     constant_power_C 16454.4994+348.3502j;
     nominal_voltage 480;
     load_class C;
}

// Distributed generation connection of load 2
// Solar connection 2

object overhead_line {
    name line_solar2;
		from R1-12-47-3_meter_2;
		to meter_solar2;
		phases ABCN;
		length 10;
		configuration line_configuration:18;
}

object meter {
    name meter_solar2;
		phases ABCN;
		nominal_voltage 480;
}

object inverter {
    name solar_inv2;
		phases ABCN;
		parent meter_solar2;
		generator_status ONLINE;
	  inverter_type FOUR_QUADRANT;
		four_quadrant_control_mode CONSTANT_PF;
	  generator_mode SUPPLY_DRIVEN;
		inverter_efficiency .95;
		rated_power 15000;
}

object solar {
    name solar_2;
		phases ABCN;
		parent solar_inv2;
		generator_status ONLINE;
		generator_mode SUPPLY_DRIVEN;
		panel_type SINGLE_CRYSTAL_SILICON;
		area 250 ft^2;
		tilt_angle 47.0;
		efficiency 0.135;
		orientation_azimuth 180;  // equator-facing (South)
		orientation FIXED_AXIS;
		SOLAR_TILT_MODEL SOLPOS;
		SOLAR_POWER_MODEL FLATPLATE;
}


// Battery connection 2

object overhead_line {
    name line_batt2;
		from R1-12-47-3_meter_2;
		to meter_batt2;
		phases ABCN;
		length 10;
		configuration line_configuration:18;
}

object meter {
    name meter_batt2;
		phases ABCN;
		nominal_voltage 480;
}

object inverter {
    name batt_inv2;
		phases ABCN;
		parent meter_batt2;
		generator_status ONLINE;
	  inverter_type FOUR_QUADRANT;
		four_quadrant_control_mode CONSTANT_PF;
		sense_object R1-12-47-3_meter_2;
		inverter_efficiency .95;
		rated_power 15000;
		charge_on_threshold 1.5 kW;
		charge_off_threshold 1.7 kW;
		discharge_off_threshold 2 kW;
		discharge_on_threshold 3 kW;
		max_discharge_rate 3 kW;
		max_charge_rate 3 kW;
		charge_lockout_time 1;
		discharge_lockout_time 1;
}

object battery {
    name batt_2;
		parent batt_inv2;
		use_internal_battery_model TRUE;
		battery_type LI_ION;
		rated_power 15000;
		nominal_voltage 480;
		battery_capacity 20 kWh;
		round_trip_efficiency 0.81;
		state_of_charge 0.5;
		generator_mode SUPPLY_DRIVEN;
}


// EV charger connection 2

object transformer {
	name center_tap_2;
	phases CS;
	from R1-12-47-3_load_2;
	to trip_meter_ev2;
	configuration CS_config;
}

object triplex_meter {
    name trip_meter_ev2;
		phases CS;
		nominal_voltage 480;
}

object house {
      name house_2;
      parent trip_meter_ev2;
//  	floor_area 0;
//		heating_setpoint 0;
//		cooling_setpoint 0;
//		thermostat_deadband 0;
//		object ZIPload {
//			base_power 0;
//			power_fraction 0.2;
//			impedance_fraction 0.3;
//			current_fraction 0.5;
//			power_pf 0.9;
//			current_pf 0.6;
//			impedance_pf 0.8;
//		};
//		object waterheater {
//			location INSIDE;
//			water_demand 0;
//		};
		object evcharger {
	      charger_type HIGH;
		};
}


// Load 3
object load:88 {
     name R1-12-47-3_load_3;
     parent R1-12-47-3_meter_3;
     phases ACN;
     voltage_A 7200+0.0j;
     voltage_C -3600+6235j;
     constant_power_A 0+0j;
     constant_power_C 27424.1657+580.5836j;
     nominal_voltage 480;
     load_class C;
}

// Distributed generation connection of load 3
// Solar connection 3

object overhead_line {
    name line_solar3;
		from R1-12-47-3_meter_3;
		to meter_solar3;
		phases CN;
		length 10;
		configuration line_configuration:20;
}

object meter {
    name meter_solar3;
		phases CN;
		nominal_voltage 480;
}

object inverter {
    name solar_inv3;
		phases CN;
		parent meter_solar3;
		generator_status ONLINE;
	  inverter_type FOUR_QUADRANT;
		four_quadrant_control_mode CONSTANT_PF;
	  generator_mode SUPPLY_DRIVEN;
		inverter_efficiency .95;
		rated_power 20000;
}

object solar {
    name solar_3;
		phases CN;
		parent solar_inv3;
		generator_status ONLINE;
		generator_mode SUPPLY_DRIVEN;
		panel_type SINGLE_CRYSTAL_SILICON;
		area 250 ft^2;
		tilt_angle 47.0;
		efficiency 0.135;
		orientation_azimuth 180;  // equator-facing (South)
		orientation FIXED_AXIS;
		SOLAR_TILT_MODEL SOLPOS;
		SOLAR_POWER_MODEL FLATPLATE;
}


// Battery connection 3

object overhead_line {
    name line_batt3;
		from R1-12-47-3_meter_3;
		to meter_batt3;
		phases CN;
		length 10;
		configuration line_configuration:20;
}

object meter {
    name meter_batt3;
		phases CN;
		nominal_voltage 480;
}

object inverter {
    name batt_inv3;
		phases CN;
		parent meter_batt3;
		generator_status ONLINE;
	  inverter_type FOUR_QUADRANT;
		four_quadrant_control_mode CONSTANT_PF;
		sense_object R1-12-47-3_meter_3;
		inverter_efficiency .95;
		rated_power 20000;
		charge_on_threshold 1.5 kW;
		charge_off_threshold 1.7 kW;
		discharge_off_threshold 2 kW;
		discharge_on_threshold 3 kW;
		max_discharge_rate 3 kW;
		max_charge_rate 3 kW;
		charge_lockout_time 1;
		discharge_lockout_time 1;
}

object battery {
    name batt_3;
		parent batt_inv3;
		use_internal_battery_model TRUE;
		battery_type LI_ION;
		rated_power 20000;
		nominal_voltage 480;
		battery_capacity 20 kWh;
		round_trip_efficiency 0.81;
		state_of_charge 0.5;
		generator_mode SUPPLY_DRIVEN;
}


// EV charger connection 3

object transformer {
	name center_tap_3;
	phases CS;
	from R1-12-47-3_load_3;
	to trip_meter_ev3;
	configuration CS_config;
}

object triplex_meter {
    name trip_meter_ev3;
		phases CS;
		nominal_voltage 480;
}

object house {
      name house_3;
      parent trip_meter_ev3;
//  	floor_area 0;
//		heating_setpoint 0;
//		cooling_setpoint 0;
//		thermostat_deadband 0;
//		object ZIPload {
//			base_power 0;
//			power_fraction 0.2;
//			impedance_fraction 0.3;
//			current_fraction 0.5;
//			power_pf 0.9;
//			current_pf 0.6;
//			impedance_pf 0.8;
//		};
//		object waterheater {
//			location INSIDE;
//			water_demand 0;
//		};
		object evcharger {
	      charger_type HIGH;
		};
}


// Load 4
object load:89 {
     name R1-12-47-3_load_4;
     parent R1-12-47-3_meter_4;
     phases CN;
     voltage_C -3600+6235j;
     constant_power_C 54848.3315+1161.1672j;
     nominal_voltage 480;
     load_class C;
}

// Distributed generation connection of load 4
// Solar connection 4

object overhead_line {
    name line_solar4;
		from R1-12-47-3_meter_4;
		to meter_solar4;
		phases CN;
		length 10;
		configuration line_configuration:20;
}

object meter {
    name meter_solar4;
		phases CN;
		nominal_voltage 480;
}

object inverter {
    name solar_inv4;
		phases CN;
		parent meter_solar4;
		generator_status ONLINE;
	  inverter_type FOUR_QUADRANT;
		four_quadrant_control_mode CONSTANT_PF;
	  generator_mode SUPPLY_DRIVEN;
		inverter_efficiency .95;
		rated_power 50000;
}

object solar {
    name solar_4;
		phases CN;
		parent solar_inv4;
		generator_status ONLINE;
		generator_mode SUPPLY_DRIVEN;
		panel_type SINGLE_CRYSTAL_SILICON;
		area 250 ft^2;
		tilt_angle 47.0;
		efficiency 0.135;
		orientation_azimuth 180;  // equator-facing (South)
		orientation FIXED_AXIS;
		SOLAR_TILT_MODEL SOLPOS;
		SOLAR_POWER_MODEL FLATPLATE;
}


// Battery connection 4

object overhead_line {
    name line_batt4;
		from R1-12-47-3_meter_4;
		to meter_batt4;
		phases CN;
		length 10;
		configuration line_configuration:20;
}

object meter {
    name meter_batt4;
		phases CN;
		nominal_voltage 480;
}

object inverter {
    name batt_inv4;
		phases CN;
		parent meter_batt4;
		generator_status ONLINE;
	  inverter_type FOUR_QUADRANT;
		four_quadrant_control_mode CONSTANT_PF;
		sense_object R1-12-47-3_meter_4;
		inverter_efficiency .95;
		rated_power 50000;
		charge_on_threshold 1.5 kW;
		charge_off_threshold 1.7 kW;
		discharge_off_threshold 2 kW;
		discharge_on_threshold 3 kW;
		max_discharge_rate 3 kW;
		max_charge_rate 3 kW;
		charge_lockout_time 1;
		discharge_lockout_time 1;
}

object battery {
    name batt_4;
		parent batt_inv4;
		use_internal_battery_model TRUE;
		battery_type LI_ION;
		rated_power 50000;
		nominal_voltage 480;
		battery_capacity 20 kWh;
		round_trip_efficiency 0.81;
		state_of_charge 0.5;
		generator_mode SUPPLY_DRIVEN;
}


// EV charger connection 4

object transformer {
	name center_tap_4;
	phases CS;
	from R1-12-47-3_load_4;
	to trip_meter_ev4;
	configuration CS_config;
}

object triplex_meter {
    name trip_meter_ev4;
		phases CS;
		nominal_voltage 480;
}

object house {
      name house_4;
      parent trip_meter_ev4;
//  	floor_area 0;
//		heating_setpoint 0;
//		cooling_setpoint 0;
//		thermostat_deadband 0;
//		object ZIPload {
//			base_power 0;
//			power_fraction 0.2;
//			impedance_fraction 0.3;
//			current_fraction 0.5;
//			power_pf 0.9;
//			current_pf 0.6;
//			impedance_pf 0.8;
//		};
//		object waterheater {
//			location INSIDE;
//			water_demand 0;
//		};
		object evcharger {
	      charger_type HIGH;
		};
}


// Load 5
object load:90 {
     name R1-12-47-3_load_5;
     parent R1-12-47-3_meter_5;
     phases CN;
     voltage_C -3600+6235j;
     constant_power_C 54848.3315+1161.1672j;
     nominal_voltage 480;
     load_class C;
}

// Distributed generation connection of load 5
// Solar connection 5

object overhead_line {
    name line_solar5;
		from R1-12-47-3_meter_5;
		to meter_solar5;
		phases CN;
		length 10;
		configuration line_configuration:20;
}

object meter {
    name meter_solar5;
		phases CN;
		nominal_voltage 480;
}

object inverter {
    name solar_inv5;
		phases CN;
		parent meter_solar5;
		generator_status ONLINE;
	  inverter_type FOUR_QUADRANT;
		four_quadrant_control_mode CONSTANT_PF;
	  generator_mode SUPPLY_DRIVEN;
		inverter_efficiency .95;
		rated_power 50000;
}

object solar {
    name solar_5;
		phases CN;
		parent solar_inv5;
		generator_status ONLINE;
		generator_mode SUPPLY_DRIVEN;
		panel_type SINGLE_CRYSTAL_SILICON;
		area 250 ft^2;
		tilt_angle 47.0;
		efficiency 0.135;
		orientation_azimuth 180;  // equator-facing (South)
		orientation FIXED_AXIS;
		SOLAR_TILT_MODEL SOLPOS;
		SOLAR_POWER_MODEL FLATPLATE;
}


// Battery connection 5

object overhead_line {
    name line_batt5;
		from R1-12-47-3_meter_5;
		to meter_batt5;
		phases CN;
		length 10;
		configuration line_configuration:20;
}

object meter {
    name meter_batt5;
		phases CN;
		nominal_voltage 480;
}

object inverter {
    name batt_inv5;
		phases CN;
		parent meter_batt5;
		generator_status ONLINE;
	  inverter_type FOUR_QUADRANT;
		four_quadrant_control_mode CONSTANT_PF;
		sense_object R1-12-47-3_meter_5;
		inverter_efficiency .95;
		rated_power 50000;
		charge_on_threshold 1.5 kW;
		charge_off_threshold 1.7 kW;
		discharge_off_threshold 2 kW;
		discharge_on_threshold 3 kW;
		max_discharge_rate 3 kW;
		max_charge_rate 3 kW;
		charge_lockout_time 1;
		discharge_lockout_time 1;
}

object battery {
    name batt_5;
		parent batt_inv5;
		use_internal_battery_model TRUE;
		battery_type LI_ION;
		rated_power 50000;
		nominal_voltage 480;
		battery_capacity 20 kWh;
		round_trip_efficiency 0.81;
		state_of_charge 0.5;
		generator_mode SUPPLY_DRIVEN;
}


// EV charger connection 5

object transformer {
	name center_tap_5;
	phases CS;
	from R1-12-47-3_load_5;
	to trip_meter_ev5;
	configuration CS_config;
}

object triplex_meter {
    name trip_meter_ev5;
		phases CS;
		nominal_voltage 480;
}

object house {
      name house_5;
      parent trip_meter_ev5;
//  	floor_area 0;
//		heating_setpoint 0;
//		cooling_setpoint 0;
//		thermostat_deadband 0;
//		object ZIPload {
//			base_power 0;
//			power_fraction 0.2;
//			impedance_fraction 0.3;
//			current_fraction 0.5;
//			power_pf 0.9;
//			current_pf 0.6;
//			impedance_pf 0.8;
//		};
//		object waterheater {
//			location INSIDE;
//			water_demand 0;
//		};
		object evcharger {
	      charger_type HIGH;
		};
}


// Load 6
object load:91 {
     name R1-12-47-3_load_6;
     parent R1-12-47-3_meter_6;
     phases ABCN;
     voltage_A 7200+0.0j;
     voltage_B -3600-6235j;
     voltage_C -3600+6235j;
     constant_power_A 0+0j;
     constant_power_B 0+0j;
     constant_power_C 82272.4972+1741.7508j;
     nominal_voltage 480;
     load_class C;
}

// Distributed generation connection of load 6
// Solar connection 6

object overhead_line {
    name line_solar6;
		from R1-12-47-3_meter_6;
		to meter_solar6;
		phases ABCN;
		length 10;
		configuration line_configuration:18;
}

object meter {
    name meter_solar6;
		phases ABCN;
		nominal_voltage 480;
}

object inverter {
    name solar_inv6;
		phases ABCN;
		parent meter_solar6;
		generator_status ONLINE;
	  inverter_type FOUR_QUADRANT;
		four_quadrant_control_mode CONSTANT_PF;
	  generator_mode SUPPLY_DRIVEN;
		inverter_efficiency .95;
		rated_power 80000;
}

object solar {
    name solar_6;
		phases ABCN;
		parent solar_inv6;
		generator_status ONLINE;
		generator_mode SUPPLY_DRIVEN;
		panel_type SINGLE_CRYSTAL_SILICON;
		area 250 ft^2;
		tilt_angle 47.0;
		efficiency 0.135;
		orientation_azimuth 180;  // equator-facing (South)
		orientation FIXED_AXIS;
		SOLAR_TILT_MODEL SOLPOS;
		SOLAR_POWER_MODEL FLATPLATE;
}


// Battery connection 6

object overhead_line {
    name line_batt6;
		from R1-12-47-3_meter_6;
		to meter_batt6;
		phases ABCN;
		length 10;
		configuration line_configuration:18;
}

object meter {
    name meter_batt6;
		phases ABCN;
		nominal_voltage 480;
}

object inverter {
    name batt_inv6;
		phases ABCN;
		parent meter_batt6;
		generator_status ONLINE;
	  inverter_type FOUR_QUADRANT;
		four_quadrant_control_mode CONSTANT_PF;
		sense_object R1-12-47-3_meter_6;
		inverter_efficiency .95;
		rated_power 80000;
		charge_on_threshold 1.5 kW;
		charge_off_threshold 1.7 kW;
		discharge_off_threshold 2 kW;
		discharge_on_threshold 3 kW;
		max_discharge_rate 3 kW;
		max_charge_rate 3 kW;
		charge_lockout_time 1;
		discharge_lockout_time 1;
}

object battery {
    name batt_6;
		parent batt_inv6;
		use_internal_battery_model TRUE;
		battery_type LI_ION;
		rated_power 80000;
		nominal_voltage 480;
		battery_capacity 20 kWh;
		round_trip_efficiency 0.81;
		state_of_charge 0.5;
		generator_mode SUPPLY_DRIVEN;
}


// EV charger connection 6

object transformer {
	name center_tap_6;
	phases CS;
	from R1-12-47-3_load_6;
	to trip_meter_ev6;
	configuration CS_config;
}

object triplex_meter {
    name trip_meter_ev6;
		phases CS;
		nominal_voltage 480;
}

object house {
      name house_6;
      parent trip_meter_ev6;
//  	floor_area 0;
//		heating_setpoint 0;
//		cooling_setpoint 0;
//		thermostat_deadband 0;
//		object ZIPload {
//			base_power 0;
//			power_fraction 0.2;
//			impedance_fraction 0.3;
//			current_fraction 0.5;
//			power_pf 0.9;
//			current_pf 0.6;
//			impedance_pf 0.8;
//		};
//		object waterheater {
//			location INSIDE;
//			water_demand 0;
//		};
		object evcharger {
	      charger_type HIGH;
		};
}


// Load 7
object load:92 {
     name R1-12-47-3_load_7;
     parent R1-12-47-3_meter_7;
     phases AN;
     voltage_A 7200+0.0j;
     constant_power_A 42928.5478+803.0025j;
     nominal_voltage 480;
     load_class C;
}

// Distributed generation connection of load 7
// Solar connection 7

object overhead_line {
    name line_solar7;
		from R1-12-47-3_meter_7;
		to meter_solar7;
		phases AN;
		length 10;
		configuration line_configuration:25;
}

object meter {
    name meter_solar7;
		phases AN;
		nominal_voltage 480;
}

object inverter {
    name solar_inv7;
		phases AN;
		parent meter_solar7;
		generator_status ONLINE;
	  inverter_type FOUR_QUADRANT;
		four_quadrant_control_mode CONSTANT_PF;
	  generator_mode SUPPLY_DRIVEN;
		inverter_efficiency .95;
		rated_power 40000;
}

object solar {
    name solar_7;
		phases AN;
		parent solar_inv7;
		generator_status ONLINE;
		generator_mode SUPPLY_DRIVEN;
		panel_type SINGLE_CRYSTAL_SILICON;
		area 250 ft^2;
		tilt_angle 47.0;
		efficiency 0.135;
		orientation_azimuth 180;  // equator-facing (South)
		orientation FIXED_AXIS;
		SOLAR_TILT_MODEL SOLPOS;
		SOLAR_POWER_MODEL FLATPLATE;
}


// Battery connection 7

object overhead_line {
    name line_batt7;
		from R1-12-47-3_meter_7;
		to meter_batt7;
		phases AN;
		length 10;
		configuration line_configuration:25;
}

object meter {
    name meter_batt7;
		phases AN;
		nominal_voltage 480;
}

object inverter {
    name batt_inv7;
		phases AN;
		parent meter_batt7;
		generator_status ONLINE;
	  inverter_type FOUR_QUADRANT;
		four_quadrant_control_mode CONSTANT_PF;
		sense_object R1-12-47-3_meter_7;
		inverter_efficiency .95;
		rated_power 40000;
		charge_on_threshold 1.5 kW;
		charge_off_threshold 1.7 kW;
		discharge_off_threshold 2 kW;
		discharge_on_threshold 3 kW;
		max_discharge_rate 3 kW;
		max_charge_rate 3 kW;
		charge_lockout_time 1;
		discharge_lockout_time 1;
}

object battery {
    name batt_7;
		parent batt_inv7;
		use_internal_battery_model TRUE;
		battery_type LI_ION;
		rated_power 40000;
		nominal_voltage 480;
		battery_capacity 20 kWh;
		round_trip_efficiency 0.81;
		state_of_charge 0.5;
		generator_mode SUPPLY_DRIVEN;
}


// EV charger connection 7

object transformer_configuration {
	name AS_config;
	connect_type SINGLE_PHASE_CENTER_TAPPED;
	install_type POLETOP;
	powerA_rating 30;
	primary_voltage 480;
	secondary_voltage 120.000;
	impedance 0.006+0.0136j;
}

object transformer {
	name center_tap_7;
	phases AS;
	from R1-12-47-3_load_7;
	to trip_meter_ev7;
	configuration AS_config;
}

object triplex_meter {
    name trip_meter_ev7;
		phases AS;
		nominal_voltage 480;
}

object house {
      name house_7;
      parent trip_meter_ev7;
//  	floor_area 0;
//		heating_setpoint 0;
//		cooling_setpoint 0;
//		thermostat_deadband 0;
//		object ZIPload {
//			base_power 0;
//			power_fraction 0.2;
//			impedance_fraction 0.3;
//			current_fraction 0.5;
//			power_pf 0.9;
//			current_pf 0.6;
//			impedance_pf 0.8;
//		};
//		object waterheater {
//			location INSIDE;
//			water_demand 0;
//		};
		object evcharger {
	      charger_type HIGH;
		};
}


// Load 8
object load:93 {
     name R1-12-47-3_load_8;
     parent R1-12-47-3_meter_8;
     phases ABCN;
     voltage_A 7200+0.0j;
     voltage_B -3600-6235j;
     voltage_C -3600+6235j;
     constant_power_A 30663.2485+573.5732j;
     constant_power_B 9908.4297+311.8149j;
     constant_power_C 27424.1657+580.5836j;
     nominal_voltage 480;
     load_class C;
}

// Distributed generation connection of load 8
// Solar connection 8

object overhead_line {
    name line_solar8;
		from R1-12-47-3_meter_8;
		to meter_solar8;
		phases ABCN;
		length 10;
		configuration line_configuration:18;
}

object meter {
    name meter_solar8;
		phases ABCN;
		nominal_voltage 480;
}

object inverter {
    name solar_inv8;
		phases ABCN;
		parent meter_solar8;
		generator_status ONLINE;
	  inverter_type FOUR_QUADRANT;
		four_quadrant_control_mode CONSTANT_PF;
	  generator_mode SUPPLY_DRIVEN;
		inverter_efficiency .95;
		rated_power 30000;
}

object solar {
    name solar_8;
		phases ABCN;
		parent solar_inv8;
		generator_status ONLINE;
		generator_mode SUPPLY_DRIVEN;
		panel_type SINGLE_CRYSTAL_SILICON;
		area 250 ft^2;
		tilt_angle 47.0;
		efficiency 0.135;
		orientation_azimuth 180;  // equator-facing (South)
		orientation FIXED_AXIS;
		SOLAR_TILT_MODEL SOLPOS;
		SOLAR_POWER_MODEL FLATPLATE;
}


// Battery connection 8

object overhead_line {
    name line_batt8;
		from R1-12-47-3_meter_8;
		to meter_batt8;
		phases ABCN;
		length 10;
		configuration line_configuration:18;
}

object meter {
    name meter_batt8;
		phases ABCN;
		nominal_voltage 480;
}

object inverter {
    name batt_inv8;
		phases ABCN;
		parent meter_batt8;
		generator_status ONLINE;
	  inverter_type FOUR_QUADRANT;
		four_quadrant_control_mode CONSTANT_PF;
		sense_object R1-12-47-3_meter_8;
		inverter_efficiency .95;
		rated_power 30000;
		charge_on_threshold 1.5 kW;
		charge_off_threshold 1.7 kW;
		discharge_off_threshold 2 kW;
		discharge_on_threshold 3 kW;
		max_discharge_rate 3 kW;
		max_charge_rate 3 kW;
		charge_lockout_time 1;
		discharge_lockout_time 1;
}

object battery {
    name batt_8;
		parent batt_inv8;
		use_internal_battery_model TRUE;
		battery_type LI_ION;
		rated_power 30000;
		nominal_voltage 480;
		battery_capacity 20 kWh;
		round_trip_efficiency 0.81;
		state_of_charge 0.5;
		generator_mode SUPPLY_DRIVEN;
}


// EV charger connection 8

object transformer {
	name center_tap_8;
	phases AS;
	from R1-12-47-3_load_8;
	to trip_meter_ev8;
	configuration AS_config;
}

object triplex_meter {
    name trip_meter_ev8;
		phases AS;
		nominal_voltage 480;
}

object house {
      name house_8;
      parent trip_meter_ev8;
//  	floor_area 0;
//		heating_setpoint 0;
//		cooling_setpoint 0;
//		thermostat_deadband 0;
//		object ZIPload {
//			base_power 0;
//			power_fraction 0.2;
//			impedance_fraction 0.3;
//			current_fraction 0.5;
//			power_pf 0.9;
//			current_pf 0.6;
//			impedance_pf 0.8;
//		};
//		object waterheater {
//			location INSIDE;
//			water_demand 0;
//		};
		object evcharger {
	      charger_type HIGH;
		};
}


// Load 9
object load:94 {
     name R1-12-47-3_load_9;
     parent R1-12-47-3_meter_9;
     phases BN;
     voltage_B -3600-6235j;
     constant_power_B 29725.289+935.4448j;
     nominal_voltage 480;
     load_class C;
}

// Distributed generation connection of load 9
// Solar connection 9

object underground_line {
    name line_solar9;
		from R1-12-47-3_meter_9;
		to meter_solar9;
		phases BN;
		length 10;
		configuration line_configuration:29;
}

object meter {
    name meter_solar9;
		phases BN;
		nominal_voltage 480;
}

object inverter {
    name solar_inv9;
		phases BN;
		parent meter_solar9;
		generator_status ONLINE;
	  inverter_type FOUR_QUADRANT;
		four_quadrant_control_mode CONSTANT_PF;
	  generator_mode SUPPLY_DRIVEN;
		inverter_efficiency .95;
		rated_power 40000;
}

object solar {
    name solar_9;
		phases BN;
		parent solar_inv9;
		generator_status ONLINE;
		generator_mode SUPPLY_DRIVEN;
		panel_type SINGLE_CRYSTAL_SILICON;
		area 250 ft^2;
		tilt_angle 47.0;
		efficiency 0.135;
		orientation_azimuth 180;  // equator-facing (South)
		orientation FIXED_AXIS;
		SOLAR_TILT_MODEL SOLPOS;
		SOLAR_POWER_MODEL FLATPLATE;
}


// Battery connection 9

object underground_line {
    name line_batt9;
		from R1-12-47-3_meter_9;
		to meter_batt9;
		phases BN;
		length 10;
		configuration line_configuration:29;
}

object meter {
    name meter_batt9;
		phases BN;
		nominal_voltage 480;
}

object inverter {
    name batt_inv9;
		phases BN;
		parent meter_batt9;
		generator_status ONLINE;
	  inverter_type FOUR_QUADRANT;
		four_quadrant_control_mode CONSTANT_PF;
		sense_object R1-12-47-3_meter_9;
		inverter_efficiency .95;
		rated_power 40000;
		charge_on_threshold 1.5 kW;
		charge_off_threshold 1.7 kW;
		discharge_off_threshold 2 kW;
		discharge_on_threshold 3 kW;
		max_discharge_rate 3 kW;
		max_charge_rate 3 kW;
		charge_lockout_time 1;
		discharge_lockout_time 1;
}

object battery {
    name batt_9;
		parent batt_inv9;
		use_internal_battery_model TRUE;
		battery_type LI_ION;
		rated_power 40000;
		nominal_voltage 480;
		battery_capacity 20 kWh;
		round_trip_efficiency 0.81;
		state_of_charge 0.5;
		generator_mode SUPPLY_DRIVEN;
}


// EV charger connection 9

object transformer_configuration {
	name BS_config;
	connect_type SINGLE_PHASE_CENTER_TAPPED;
	install_type POLETOP;
	powerB_rating 30;
	primary_voltage 480;
	secondary_voltage 120.000;
	impedance 0.006+0.0136j;
}

object transformer {
	name center_tap_9;
	phases BS;
	from R1-12-47-3_load_9;
	to trip_meter_ev9;
	configuration BS_config;
}

object triplex_meter {
    name trip_meter_ev9;
		phases BS;
		nominal_voltage 480;
}

object house {
      name house_9;
      parent trip_meter_ev9;
//  	floor_area 0;
//		heating_setpoint 0;
//		cooling_setpoint 0;
//		thermostat_deadband 0;
//		object ZIPload {
//			base_power 0;
//			power_fraction 0.2;
//			impedance_fraction 0.3;
//			current_fraction 0.5;
//			power_pf 0.9;
//			current_pf 0.6;
//			impedance_pf 0.8;
//		};
//		object waterheater {
//			location INSIDE;
//			water_demand 0;
//		};
		object evcharger {
	      charger_type HIGH;
		};
}


// Load 10
object load:95 {
     name R1-12-47-3_load_10;
     parent R1-12-47-3_meter_10;
     phases ABCN;
     voltage_A 7200+0.0j;
     voltage_B -3600-6235j;
     voltage_C -3600+6235j;
     constant_power_A 0+0j;
     constant_power_B 9908.4297+311.8149j;
     constant_power_C 54848.3315+1161.1672j;
     nominal_voltage 480;
     load_class C;
}

// Distributed generation connection of load 10
// Solar connection 10

object overhead_line {
    name line_solar10;
		from R1-12-47-3_meter_10;
		to meter_solar10;
		phases ABCN;
		length 10;
		configuration line_configuration:18;
}

object meter {
    name meter_solar10;
		phases ABCN;
		nominal_voltage 480;
}

object inverter {
    name solar_inv10;
		phases ABCN;
		parent meter_solar10;
		generator_status ONLINE;
	  inverter_type FOUR_QUADRANT;
		four_quadrant_control_mode CONSTANT_PF;
	  generator_mode SUPPLY_DRIVEN;
		inverter_efficiency .95;
		rated_power 30000;
}

object solar {
    name solar_10;
		phases ABCN;
		parent solar_inv10;
		generator_status ONLINE;
		generator_mode SUPPLY_DRIVEN;
		panel_type SINGLE_CRYSTAL_SILICON;
		area 250 ft^2;
		tilt_angle 47.0;
		efficiency 0.135;
		orientation_azimuth 180;  // equator-facing (South)
		orientation FIXED_AXIS;
		SOLAR_TILT_MODEL SOLPOS;
		SOLAR_POWER_MODEL FLATPLATE;
}


// Battery connection 10

object overhead_line {
    name line_batt10;
		from R1-12-47-3_meter_10;
		to meter_batt10;
		phases ABCN;
		length 10;
		configuration line_configuration:18;
}

object meter {
    name meter_batt10;
		phases ABCN;
		nominal_voltage 480;
}

object inverter {
    name batt_inv10;
		phases ABCN;
		parent meter_batt10;
		generator_status ONLINE;
	  inverter_type FOUR_QUADRANT;
		four_quadrant_control_mode CONSTANT_PF;
		sense_object R1-12-47-3_meter_10;
		inverter_efficiency .95;
		rated_power 30000;
		charge_on_threshold 1.5 kW;
		charge_off_threshold 1.7 kW;
		discharge_off_threshold 2 kW;
		discharge_on_threshold 3 kW;
		max_discharge_rate 3 kW;
		max_charge_rate 3 kW;
		charge_lockout_time 1;
		discharge_lockout_time 1;
}

object battery {
    name batt_10;
		parent batt_inv10;
		use_internal_battery_model TRUE;
		battery_type LI_ION;
		rated_power 30000;
		nominal_voltage 480;
		battery_capacity 20 kWh;
		round_trip_efficiency 0.81;
		state_of_charge 0.5;
		generator_mode SUPPLY_DRIVEN;
}


// EV charger connection 10

object transformer {
	name center_tap_10;
	phases BS;
	from R1-12-47-3_load_10;
	to trip_meter_ev10;
	configuration BS_config;
}

object triplex_meter {
    name trip_meter_ev10;
		phases BS;
		nominal_voltage 480;
}

object house {
      name house_10;
      parent trip_meter_ev10;
//  	floor_area 0;
//		heating_setpoint 0;
//		cooling_setpoint 0;
//		thermostat_deadband 0;
//		object ZIPload {
//			base_power 0;
//			power_fraction 0.2;
//			impedance_fraction 0.3;
//			current_fraction 0.5;
//			power_pf 0.9;
//			current_pf 0.6;
//			impedance_pf 0.8;
//		};
//		object waterheater {
//			location INSIDE;
//			water_demand 0;
//		};
		object evcharger {
	      charger_type HIGH;
		};
}


// Load 11
object load:96 {
     name R1-12-47-3_load_11;
     parent R1-12-47-3_meter_11;
     phases AN;
     voltage_A 7200+0.0j;
     constant_power_A 110387.6944+2064.8636j;
     nominal_voltage 480;
     load_class C;
}

// Distributed generation connection of load 11
// Solar connection 11

object overhead_line {
    name line_solar11;
		from R1-12-47-3_meter_11;
		to meter_solar11;
		phases AN;
		length 10;
		configuration line_configuration:25;
}

object meter {
    name meter_solar11;
		phases AN;
		nominal_voltage 480;
}

object inverter {
    name solar_inv11;
		phases AN;
		parent meter_solar11;
		generator_status ONLINE;
	  inverter_type FOUR_QUADRANT;
		four_quadrant_control_mode CONSTANT_PF;
	  generator_mode SUPPLY_DRIVEN;
		inverter_efficiency .95;
		rated_power 90000;
}

object solar {
    name solar_11;
		phases AN;
		parent solar_inv11;
		generator_status ONLINE;
		generator_mode SUPPLY_DRIVEN;
		panel_type SINGLE_CRYSTAL_SILICON;
		area 250 ft^2;
		tilt_angle 47.0;
		efficiency 0.135;
		orientation_azimuth 180;  // equator-facing (South)
		orientation FIXED_AXIS;
		SOLAR_TILT_MODEL SOLPOS;
		SOLAR_POWER_MODEL FLATPLATE;
}


// Battery connection 11

object overhead_line {
    name line_batt11;
		from R1-12-47-3_meter_11;
		to meter_batt11;
		phases AN;
		length 10;
		configuration line_configuration:25;
}

object meter {
    name meter_batt11;
		phases AN;
		nominal_voltage 480;
}

object inverter {
    name batt_inv11;
		phases AN;
		parent meter_batt11;
		generator_status ONLINE;
	  inverter_type FOUR_QUADRANT;
		four_quadrant_control_mode CONSTANT_PF;
		sense_object R1-12-47-3_meter_11;
		inverter_efficiency .95;
		rated_power 90000;
		charge_on_threshold 1.5 kW;
		charge_off_threshold 1.7 kW;
		discharge_off_threshold 2 kW;
		discharge_on_threshold 3 kW;
		max_discharge_rate 3 kW;
		max_charge_rate 3 kW;
		charge_lockout_time 1;
		discharge_lockout_time 1;
}

object battery {
    name batt_11;
		parent batt_inv11;
		use_internal_battery_model TRUE;
		battery_type LI_ION;
		rated_power 90000;
		nominal_voltage 480;
		battery_capacity 20 kWh;
		round_trip_efficiency 0.81;
		state_of_charge 0.5;
		generator_mode SUPPLY_DRIVEN;
}


// EV charger connection 11

object transformer {
	name center_tap_11;
	phases AS;
	from R1-12-47-3_load_11;
	to trip_meter_ev11;
	configuration AS_config;
}

object triplex_meter {
    name trip_meter_ev11;
		phases AS;
		nominal_voltage 480;
}

object house {
      name house_11;
      parent trip_meter_ev11;
//  	floor_area 0;
//		heating_setpoint 0;
//		cooling_setpoint 0;
//		thermostat_deadband 0;
//		object ZIPload {
//			base_power 0;
//			power_fraction 0.2;
//			impedance_fraction 0.3;
//			current_fraction 0.5;
//			power_pf 0.9;
//			current_pf 0.6;
//			impedance_pf 0.8;
//		};
//		object waterheater {
//			location INSIDE;
//			water_demand 0;
//		};
		object evcharger {
	      charger_type HIGH;
		};
}


// Load 12
object load:97 {
     name R1-12-47-3_load_12;
     parent R1-12-47-3_meter_12;
     phases AN;
     voltage_A 7200+0.0j;
     constant_power_A 30663.2485+573.5732j;
     nominal_voltage 480;
     load_class C;
}

// Distributed generation connection of load 12
// Solar connection 12

object overhead_line {
    name line_solar12;
		from R1-12-47-3_meter_12;
		to meter_solar12;
		phases AN;
		length 10;
		configuration line_configuration:25;
}

object meter {
    name meter_solar12;
		phases AN;
		nominal_voltage 480;
}

object inverter {
    name solar_inv12;
		phases AN;
		parent meter_solar12;
		generator_status ONLINE;
	  inverter_type FOUR_QUADRANT;
		four_quadrant_control_mode CONSTANT_PF;
	  generator_mode SUPPLY_DRIVEN;
		inverter_efficiency .95;
		rated_power 30000;
}

object solar {
    name solar_12;
		phases AN;
		parent solar_inv12;
		generator_status ONLINE;
		generator_mode SUPPLY_DRIVEN;
		panel_type SINGLE_CRYSTAL_SILICON;
		area 250 ft^2;
		tilt_angle 47.0;
		efficiency 0.135;
		orientation_azimuth 180;  // equator-facing (South)
		orientation FIXED_AXIS;
		SOLAR_TILT_MODEL SOLPOS;
		SOLAR_POWER_MODEL FLATPLATE;
}


// Battery connection 12

object overhead_line {
    name line_batt12;
		from R1-12-47-3_meter_12;
		to meter_batt12;
		phases AN;
		length 10;
		configuration line_configuration:25;
}

object meter {
    name meter_batt12;
		phases AN;
		nominal_voltage 480;
}

object inverter {
    name batt_inv12;
		phases AN;
		parent meter_batt12;
		generator_status ONLINE;
	  inverter_type FOUR_QUADRANT;
		four_quadrant_control_mode CONSTANT_PF;
		sense_object R1-12-47-3_meter_12;
		inverter_efficiency .95;
		rated_power 30000;
		charge_on_threshold 1.5 kW;
		charge_off_threshold 1.7 kW;
		discharge_off_threshold 2 kW;
		discharge_on_threshold 3 kW;
		max_discharge_rate 3 kW;
		max_charge_rate 3 kW;
		charge_lockout_time 1;
		discharge_lockout_time 1;
}

object battery {
    name batt_12;
		parent batt_inv12;
		use_internal_battery_model TRUE;
		battery_type LI_ION;
		rated_power 30000;
		nominal_voltage 480;
		battery_capacity 20 kWh;
		round_trip_efficiency 0.81;
		state_of_charge 0.5;
		generator_mode SUPPLY_DRIVEN;
}


// EV charger connection 12

object transformer {
	name center_tap_12;
	phases AS;
	from R1-12-47-3_load_12;
	to trip_meter_ev12;
	configuration AS_config;
}

object triplex_meter {
    name trip_meter_ev12;
		phases AS;
		nominal_voltage 480;
}

object house {
      name house_12;
      parent trip_meter_ev12;
//  	floor_area 0;
//		heating_setpoint 0;
//		cooling_setpoint 0;
//		thermostat_deadband 0;
//		object ZIPload {
//			base_power 0;
//			power_fraction 0.2;
//			impedance_fraction 0.3;
//			current_fraction 0.5;
//			power_pf 0.9;
//			current_pf 0.6;
//			impedance_pf 0.8;
//		};
//		object waterheater {
//			location INSIDE;
//			water_demand 0;
//		};
		object evcharger {
	      charger_type HIGH;
		};
}


// Load 13
object load:98 {
     name R1-12-47-3_load_13;
     parent R1-12-47-3_meter_13;
     phases AN;
     voltage_A 7200+0.0j;
     constant_power_A 30663.2485+573.5732j;
     nominal_voltage 480;
     load_class C;
}

// Distributed generation connection of load 13
// Solar connection 13

object overhead_line {
    name line_solar13;
		from R1-12-47-3_meter_13;
		to meter_solar13;
		phases AN;
		length 10;
		configuration line_configuration:25;
}

object meter {
    name meter_solar13;
		phases AN;
		nominal_voltage 480;
}

object inverter {
    name solar_inv13;
		phases AN;
		parent meter_solar13;
		generator_status ONLINE;
	  inverter_type FOUR_QUADRANT;
		four_quadrant_control_mode CONSTANT_PF;
	  generator_mode SUPPLY_DRIVEN;
		inverter_efficiency .95;
		rated_power 30000;
}

object solar {
    name solar_13;
		phases AN;
		parent solar_inv13;
		generator_status ONLINE;
		generator_mode SUPPLY_DRIVEN;
		panel_type SINGLE_CRYSTAL_SILICON;
		area 250 ft^2;
		tilt_angle 47.0;
		efficiency 0.135;
		orientation_azimuth 180;  // equator-facing (South)
		orientation FIXED_AXIS;
		SOLAR_TILT_MODEL SOLPOS;
		SOLAR_POWER_MODEL FLATPLATE;
}


// Battery connection 13

object overhead_line {
    name line_batt13;
		from R1-12-47-3_meter_13;
		to meter_batt13;
		phases AN;
		length 10;
		configuration line_configuration:25;
}

object meter {
    name meter_batt13;
		phases AN;
		nominal_voltage 480;
}

object inverter {
    name batt_inv13;
		phases AN;
		parent meter_batt13;
		generator_status ONLINE;
	  inverter_type FOUR_QUADRANT;
		four_quadrant_control_mode CONSTANT_PF;
		sense_object R1-12-47-3_meter_13;
		inverter_efficiency .95;
		rated_power 30000;
		charge_on_threshold 1.5 kW;
		charge_off_threshold 1.7 kW;
		discharge_off_threshold 2 kW;
		discharge_on_threshold 3 kW;
		max_discharge_rate 3 kW;
		max_charge_rate 3 kW;
		charge_lockout_time 1;
		discharge_lockout_time 1;
}

object battery {
    name batt_13;
		parent batt_inv13;
		use_internal_battery_model TRUE;
		battery_type LI_ION;
		rated_power 30000;
		nominal_voltage 480;
		battery_capacity 20 kWh;
		round_trip_efficiency 0.81;
		state_of_charge 0.5;
		generator_mode SUPPLY_DRIVEN;
}


// EV charger connection 13

object transformer {
	name center_tap_13;
	phases AS;
	from R1-12-47-3_load_13;
	to trip_meter_ev13;
	configuration AS_config;
}

object triplex_meter {
    name trip_meter_ev13;
		phases AS;
		nominal_voltage 480;
}

object house {
      name house_13;
      parent trip_meter_ev13;
//  	floor_area 0;
//		heating_setpoint 0;
//		cooling_setpoint 0;
//		thermostat_deadband 0;
//		object ZIPload {
//			base_power 0;
//			power_fraction 0.2;
//			impedance_fraction 0.3;
//			current_fraction 0.5;
//			power_pf 0.9;
//			current_pf 0.6;
//			impedance_pf 0.8;
//		};
//		object waterheater {
//			location INSIDE;
//			water_demand 0;
//		};
		object evcharger {
	      charger_type HIGH;
		};
}


// Load 14
object load:99 {
     name R1-12-47-3_load_14;
     parent R1-12-47-3_meter_14;
     phases AN;
     voltage_A 7200+0.0j;
     constant_power_A 30663.2485+573.5732j;
     nominal_voltage 480;
     load_class C;
}

// Distributed generation connection of load 14
// Solar connection 14

object overhead_line {
    name line_solar14;
		from R1-12-47-3_meter_14;
		to meter_solar14;
		phases AN;
		length 10;
		configuration line_configuration:25;
}

object meter {
    name meter_solar14;
		phases AN;
		nominal_voltage 480;
}

object inverter {
    name solar_inv14;
		phases AN;
		parent meter_solar14;
		generator_status ONLINE;
	  inverter_type FOUR_QUADRANT;
		four_quadrant_control_mode CONSTANT_PF;
	  generator_mode SUPPLY_DRIVEN;
		inverter_efficiency .95;
		rated_power 30000;
}

object solar {
    name solar_14;
		phases AN;
		parent solar_inv14;
		generator_status ONLINE;
		generator_mode SUPPLY_DRIVEN;
		panel_type SINGLE_CRYSTAL_SILICON;
		area 250 ft^2;
		tilt_angle 47.0;
		efficiency 0.135;
		orientation_azimuth 180;  // equator-facing (South)
		orientation FIXED_AXIS;
		SOLAR_TILT_MODEL SOLPOS;
		SOLAR_POWER_MODEL FLATPLATE;
}


// Battery connection 14

object overhead_line {
    name line_batt14;
		from R1-12-47-3_meter_14;
		to meter_batt14;
		phases AN;
		length 10;
		configuration line_configuration:25;
}

object meter {
    name meter_batt14;
		phases AN;
		nominal_voltage 480;
}

object inverter {
    name batt_inv14;
		phases AN;
		parent meter_batt14;
		generator_status ONLINE;
	  inverter_type FOUR_QUADRANT;
		four_quadrant_control_mode CONSTANT_PF;
		sense_object R1-12-47-3_meter_14;
		inverter_efficiency .95;
		rated_power 30000;
		charge_on_threshold 1.5 kW;
		charge_off_threshold 1.7 kW;
		discharge_off_threshold 2 kW;
		discharge_on_threshold 3 kW;
		max_discharge_rate 3 kW;
		max_charge_rate 3 kW;
		charge_lockout_time 1;
		discharge_lockout_time 1;
}

object battery {
    name batt_14;
		parent batt_inv14;
		use_internal_battery_model TRUE;
		battery_type LI_ION;
		rated_power 30000;
		nominal_voltage 480;
		battery_capacity 20 kWh;
		round_trip_efficiency 0.81;
		state_of_charge 0.5;
		generator_mode SUPPLY_DRIVEN;
}


// EV charger connection 14

object transformer {
	name center_tap_14;
	phases AS;
	from R1-12-47-3_load_14;
	to trip_meter_ev14;
	configuration AS_config;
}

object triplex_meter {
    name trip_meter_ev14;
		phases AS;
		nominal_voltage 480;
}

object house {
      name house_14;
      parent trip_meter_ev14;
//  	floor_area 0;
//		heating_setpoint 0;
//		cooling_setpoint 0;
//		thermostat_deadband 0;
//		object ZIPload {
//			base_power 0;
//			power_fraction 0.2;
//			impedance_fraction 0.3;
//			current_fraction 0.5;
//			power_pf 0.9;
//			current_pf 0.6;
//			impedance_pf 0.8;
//		};
//		object waterheater {
//			location INSIDE;
//			water_demand 0;
//		};
		object evcharger {
	      charger_type HIGH;
		};
}


// Load 15
object load:100 {
     name R1-12-47-3_load_15;
     parent R1-12-47-3_meter_15;
     phases BN;
     voltage_B -3600-6235j;
     constant_power_B 19800+600j;
     nominal_voltage 480;
     load_class C;
}

// Distributed generation connection of load 15
// Solar connection 15

object underground_line {
    name line_solar15;
		from R1-12-47-3_meter_15;
		to meter_solar15;
		phases BN;
		length 10;
		configuration line_configuration:29;
}

object meter {
    name meter_solar15;
		phases BN;
		nominal_voltage 480;
}

object inverter {
    name solar_inv15;
		phases BN;
		parent meter_solar15;
		generator_status ONLINE;
	  inverter_type FOUR_QUADRANT;
		four_quadrant_control_mode CONSTANT_PF;
	  generator_mode SUPPLY_DRIVEN;
		inverter_efficiency .95;
		rated_power 20000;
}

object solar {
    name solar_15;
		phases BN;
		parent solar_inv15;
		generator_status ONLINE;
		generator_mode SUPPLY_DRIVEN;
		panel_type SINGLE_CRYSTAL_SILICON;
		area 250 ft^2;
		tilt_angle 47.0;
		efficiency 0.135;
		orientation_azimuth 180;  // equator-facing (South)
		orientation FIXED_AXIS;
		SOLAR_TILT_MODEL SOLPOS;
		SOLAR_POWER_MODEL FLATPLATE;
}


// Battery connection 15

object underground_line {
    name line_batt15;
		from R1-12-47-3_meter_15;
		to meter_batt15;
		phases BN;
		length 10;
		configuration line_configuration:29;
}

object meter {
    name meter_batt15;
		phases BN;
		nominal_voltage 480;
}

object inverter {
    name batt_inv15;
		phases BN;
		parent meter_batt15;
		generator_status ONLINE;
	  inverter_type FOUR_QUADRANT;
		four_quadrant_control_mode CONSTANT_PF;
		sense_object R1-12-47-3_meter_15;
		inverter_efficiency .95;
		rated_power 20000;
		charge_on_threshold 1.5 kW;
		charge_off_threshold 1.7 kW;
		discharge_off_threshold 2 kW;
		discharge_on_threshold 3 kW;
		max_discharge_rate 3 kW;
		max_charge_rate 3 kW;
		charge_lockout_time 1;
		discharge_lockout_time 1;
}

object battery {
    name batt_15;
		parent batt_inv15;
		use_internal_battery_model TRUE;
		battery_type LI_ION;
		rated_power 20000;
		nominal_voltage 480;
		battery_capacity 20 kWh;
		round_trip_efficiency 0.81;
		state_of_charge 0.5;
		generator_mode SUPPLY_DRIVEN;
}


// EV charger connection 15

object transformer {
	name center_tap_15;
	phases BS;
	from R1-12-47-3_load_15;
	to trip_meter_ev15;
	configuration BS_config;
}

object triplex_meter {
    name trip_meter_ev15;
		phases BS;
		nominal_voltage 480;
}

object house {
      name house_15;
      parent trip_meter_ev15;
//  	floor_area 0;
//		heating_setpoint 0;
//		cooling_setpoint 0;
//		thermostat_deadband 0;
//		object ZIPload {
//			base_power 0;
//			power_fraction 0.2;
//			impedance_fraction 0.3;
//			current_fraction 0.5;
//			power_pf 0.9;
//			current_pf 0.6;
//			impedance_pf 0.8;
//		};
//		object waterheater {
//			location INSIDE;
//			water_demand 0;
//		};
		object evcharger {
	      charger_type HIGH;
		};
}


// Load 16
object load:101 {
     name R1-12-47-3_load_16;
     parent R1-12-47-3_meter_16;
     phases BN;
     voltage_B -3600-6235j;
     constant_power_B 66200+2100j;
     nominal_voltage 480;
     load_class C;
}

// Distributed generation connection of load 16
// Solar connection 16

object underground_line {
    name line_solar16;
		from R1-12-47-3_meter_16;
		to meter_solar16;
		phases BN;
		length 10;
		configuration line_configuration:29;
}

object meter {
    name meter_solar16;
		phases BN;
		nominal_voltage 480;
}

object inverter {
    name solar_inv16;
		phases BN;
		parent meter_solar16;
		generator_status ONLINE;
	  inverter_type FOUR_QUADRANT;
		four_quadrant_control_mode CONSTANT_PF;
	  generator_mode SUPPLY_DRIVEN;
		inverter_efficiency .95;
		rated_power 60000;
}

object solar {
    name solar_16;
		phases BN;
		parent solar_inv16;
		generator_status ONLINE;
		generator_mode SUPPLY_DRIVEN;
		panel_type SINGLE_CRYSTAL_SILICON;
		area 250 ft^2;
		tilt_angle 47.0;
		efficiency 0.135;
		orientation_azimuth 180;  // equator-facing (South)
		orientation FIXED_AXIS;
		SOLAR_TILT_MODEL SOLPOS;
		SOLAR_POWER_MODEL FLATPLATE;
}


// Battery connection 16

object underground_line {
    name line_batt16;
		from R1-12-47-3_meter_16;
		to meter_batt16;
		phases BN;
		length 10;
		configuration line_configuration:29;
}

object meter {
    name meter_batt16;
		phases BN;
		nominal_voltage 480;
}

object inverter {
    name batt_inv16;
		phases BN;
		parent meter_batt16;
		generator_status ONLINE;
	  inverter_type FOUR_QUADRANT;
		four_quadrant_control_mode CONSTANT_PF;
		sense_object R1-12-47-3_meter_16;
		inverter_efficiency .95;
		rated_power 60000;
		charge_on_threshold 1.5 kW;
		charge_off_threshold 1.7 kW;
		discharge_off_threshold 2 kW;
		discharge_on_threshold 3 kW;
		max_discharge_rate 3 kW;
		max_charge_rate 3 kW;
		charge_lockout_time 1;
		discharge_lockout_time 1;
}

object battery {
    name batt_16;
		parent batt_inv16;
		use_internal_battery_model TRUE;
		battery_type LI_ION;
		rated_power 60000;
		nominal_voltage 480;
		battery_capacity 20 kWh;
		round_trip_efficiency 0.81;
		state_of_charge 0.5;
		generator_mode SUPPLY_DRIVEN;
}


// EV charger connection 16

object transformer {
	name center_tap_16;
	phases BS;
	from R1-12-47-3_load_16;
	to trip_meter_ev16;
	configuration BS_config;
}

object triplex_meter {
    name trip_meter_ev16;
		phases BS;
		nominal_voltage 480;
}

object house {
      name house_16;
      parent trip_meter_ev16;
//  	floor_area 0;
//		heating_setpoint 0;
//		cooling_setpoint 0;
//		thermostat_deadband 0;
//		object ZIPload {
//			base_power 0;
//			power_fraction 0.2;
//			impedance_fraction 0.3;
//			current_fraction 0.5;
//			power_pf 0.9;
//			current_pf 0.6;
//			impedance_pf 0.8;
//		};
//		object waterheater {
//			location INSIDE;
//			water_demand 0;
//		};
		object evcharger {
	      charger_type HIGH;
		};
}


// Load 17
object load:102 {
     name R1-12-47-3_load_17;
     parent R1-12-47-3_meter_17;
     phases BN;
     voltage_B -3600-6235j;
     constant_power_B 19800+600j;
     nominal_voltage 480;
     load_class C;
}

// Distributed generation connection of load 17
// Solar connection 17

object underground_line {
    name line_solar17;
		from R1-12-47-3_meter_17;
		to meter_solar17;
		phases BN;
		length 10;
		configuration line_configuration:29;
}

object meter {
    name meter_solar17;
		phases BN;
		nominal_voltage 480;
}

object inverter {
    name solar_inv17;
		phases BN;
		parent meter_solar17;
		generator_status ONLINE;
	  inverter_type FOUR_QUADRANT;
		four_quadrant_control_mode CONSTANT_PF;
	  generator_mode SUPPLY_DRIVEN;
		inverter_efficiency .95;
		rated_power 20000;
}

object solar {
    name solar_17;
		phases BN;
		parent solar_inv17;
		generator_status ONLINE;
		generator_mode SUPPLY_DRIVEN;
		panel_type SINGLE_CRYSTAL_SILICON;
		area 250 ft^2;
		tilt_angle 47.0;
		efficiency 0.135;
		orientation_azimuth 180;  // equator-facing (South)
		orientation FIXED_AXIS;
		SOLAR_TILT_MODEL SOLPOS;
		SOLAR_POWER_MODEL FLATPLATE;
}


// Battery connection 17

object underground_line {
    name line_batt17;
		from R1-12-47-3_meter_17;
		to meter_batt17;
		phases BN;
		length 10;
		configuration line_configuration:29;
}

object meter {
    name meter_batt17;
		phases BN;
		nominal_voltage 480;
}

object inverter {
    name batt_inv17;
		phases BN;
		parent meter_batt17;
		generator_status ONLINE;
	  inverter_type FOUR_QUADRANT;
		four_quadrant_control_mode CONSTANT_PF;
		sense_object R1-12-47-3_meter_17;
		inverter_efficiency .95;
		rated_power 20000;
		charge_on_threshold 1.5 kW;
		charge_off_threshold 1.7 kW;
		discharge_off_threshold 2 kW;
		discharge_on_threshold 3 kW;
		max_discharge_rate 3 kW;
		max_charge_rate 3 kW;
		charge_lockout_time 1;
		discharge_lockout_time 1;
}

object battery {
    name batt_17;
		parent batt_inv17;
		use_internal_battery_model TRUE;
		battery_type LI_ION;
		rated_power 20000;
		nominal_voltage 480;
		battery_capacity 20 kWh;
		round_trip_efficiency 0.81;
		state_of_charge 0.5;
		generator_mode SUPPLY_DRIVEN;
}


// EV charger connection 17

object transformer {
	name center_tap_17;
	phases BS;
	from R1-12-47-3_load_17;
	to trip_meter_ev17;
	configuration BS_config;
}

object triplex_meter {
    name trip_meter_ev17;
		phases BS;
		nominal_voltage 480;
}

object house {
      name house_17;
      parent trip_meter_ev17;
//  	floor_area 0;
//		heating_setpoint 0;
//		cooling_setpoint 0;
//		thermostat_deadband 0;
//		object ZIPload {
//			base_power 0;
//			power_fraction 0.2;
//			impedance_fraction 0.3;
//			current_fraction 0.5;
//			power_pf 0.9;
//			current_pf 0.6;
//			impedance_pf 0.8;
//		};
//		object waterheater {
//			location INSIDE;
//			water_demand 0;
//		};
		object evcharger {
	      charger_type HIGH;
		};
}


// Load 18
object load:103 {
     name R1-12-47-3_load_18;
     parent R1-12-47-3_meter_18;
     phases ABCN;
     voltage_A 7200+0.0j;
     voltage_B -3600-6235j;
     voltage_C -3600+6235j;
     constant_power_A 61326.4969+1147.1465j;
     constant_power_B 19816.8593+623.6299j;
     constant_power_C 54848.3315+1161.1672j;
     nominal_voltage 480;
     load_class C;
}

// Distributed generation connection of load 18
// Solar connection 18

object overhead_line {
    name line_solar18;
		from R1-12-47-3_meter_18;
		to meter_solar18;
		phases ABCN;
		length 10;
		configuration line_configuration:18;
}

object meter {
    name meter_solar18;
		phases ABCN;
		nominal_voltage 480;
}

object inverter {
    name solar_inv18;
		phases ABCN;
		parent meter_solar18;
		generator_status ONLINE;
	  inverter_type FOUR_QUADRANT;
		four_quadrant_control_mode CONSTANT_PF;
	  generator_mode SUPPLY_DRIVEN;
		inverter_efficiency .95;
		rated_power 40000;
}

object solar {
    name solar_18;
		phases ABCN;
		parent solar_inv18;
		generator_status ONLINE;
		generator_mode SUPPLY_DRIVEN;
		panel_type SINGLE_CRYSTAL_SILICON;
		area 250 ft^2;
		tilt_angle 47.0;
		efficiency 0.135;
		orientation_azimuth 180;  // equator-facing (South)
		orientation FIXED_AXIS;
		SOLAR_TILT_MODEL SOLPOS;
		SOLAR_POWER_MODEL FLATPLATE;
}


// Battery connection 18

object overhead_line {
    name line_batt18;
		from R1-12-47-3_meter_18;
		to meter_batt18;
		phases ABCN;
		length 10;
		configuration line_configuration:18;
}

object meter {
    name meter_batt18;
		phases ABCN;
		nominal_voltage 480;
}

object inverter {
    name batt_inv18;
		phases ABCN;
		parent meter_batt18;
		generator_status ONLINE;
	  inverter_type FOUR_QUADRANT;
		four_quadrant_control_mode CONSTANT_PF;
		sense_object R1-12-47-3_meter_18;
		inverter_efficiency .95;
		rated_power 40000;
		charge_on_threshold 1.5 kW;
		charge_off_threshold 1.7 kW;
		discharge_off_threshold 2 kW;
		discharge_on_threshold 3 kW;
		max_discharge_rate 3 kW;
		max_charge_rate 3 kW;
		charge_lockout_time 1;
		discharge_lockout_time 1;
}

object battery {
    name batt_18;
		parent batt_inv18;
		use_internal_battery_model TRUE;
		battery_type LI_ION;
		rated_power 40000;
		nominal_voltage 480;
		battery_capacity 20 kWh;
		round_trip_efficiency 0.81;
		state_of_charge 0.5;
		generator_mode SUPPLY_DRIVEN;
}


// EV charger connection 18

object transformer {
...